"""
Surface species
==============================================================================
Format is Label(S)/number of sites occupied/

"""

units(length='cm', time='s', quantity='mol', act_energy='cal/mol')

ideal_gas(name='gas',
          elements="H C O N Pt",
          species="""CH2CH2  CH3CH3  CH4     CHCH    H2      N2""",
          initial_state=state(temperature=300.0, pressure=OneAtm))

stoichiometric_solid(name='bulk',
          elements="Pt",
          species="PT(B)",
          density=21.4,
          initial_state=state(temperature=300.0, pressure=OneAtm))

ideal_interface(name='terrace',
                elements="H C O N Pt",
                species="""CH2CH3(S)  CH3(S)     H(S)       CH2(S)
                          CHCH3(S)   CH2CH2(S)  CH(S)      CCH3(S)
                          CHCH2(S)   C(S)       CCH2(S)    CHCH(S)
                          CCH(S)     CC(S)      CH4(S)     PT(S)""",
                site_density=2.485e-09,
                phases="gas bulk",
          reactions='all',
                initial_state=state(temperature=300.0, pressure=OneAtm))

#-------------------------------------------------------------------------------
# Species data
#-------------------------------------------------------------------------------

species(name='CH2CH2',
        atoms='C:2 H:4',
        thermo=(NASA([298.15, 700.00],
                     [ 2.00795900E+00,  6.34507000E-03,  2.37206600E-05,
                      -3.74186500E-08,  1.71381600E-11,  5.28566800E+03,
                       1.22773000E+01]),
                NASA([700.00, 1500.00],
                     [-1.71462900E+00,  2.74681700E-02, -2.32674800E-05,
                       1.09301000E-08, -2.12799200E-12,  5.83410900E+03,
                       2.90187800E+01])),
        note='20180216')

species(name='CH3CH3',
        atoms='C:2 H:6',
        thermo=(NASA([100.00, 600.00],
                     [ 5.68783700E+00, -2.10570100E-02,  1.20987700E-04,
                      -1.70413500E-07,  8.43269600E-11, -1.16163900E+04,
                      -2.92598300E+00]),
                NASA([600.00, 1700.00],
                     [-1.17966700E-01,  2.44110300E-02, -1.22121800E-05,
                       2.92164500E-09, -2.63376600E-13, -1.10272700E+04,
                       2.11690800E+01])),
        note='20180216')

species(name='CH4',
        atoms='C:1 H:4',
        thermo=(NASA([300.00, 500.00],
                     [ 8.16746200E+00, -4.34086300E-02,  1.56549600E-04,
                      -2.17062000E-07,  1.13717500E-10, -1.05186000E+04,
                      -1.64564500E+01]),
                NASA([500.00, 1500.00],
                     [ 1.92325600E+00,  6.47738800E-03,  3.69132500E-06,
                      -4.72867900E-09,  1.27277000E-12, -9.87808200E+03,
                       9.42284800E+00])),
        note='20180216')

species(name='CHCH',
        atoms='C:2 H:2',
        thermo=(NASA([298.15, 600.00],
                     [-1.82247400E+00,  4.65743300E-02, -1.09511700E-04,
                       1.30254700E-07, -6.03862700E-11,  2.64801300E+04,
                       2.45393400E+01]),
                NASA([600.00, 1500.00],
                     [ 2.86777400E+00,  1.16339300E-02, -1.11415400E-05,
                       6.26176600E-09, -1.41564800E-12,  2.59728600E+04,
                       4.81060200E+00])),
        note='20180216')

species(name='H2',
        atoms='H:2',
        thermo=(NASA([100.00, 600.00],
                     [ 2.35962000E+00,  8.66943400E-03, -2.45286900E-05,
                       3.09278200E-08, -1.45420700E-11, -9.26395100E+02,
                       5.33975100E-01]),
                NASA([600.00, 1500.00],
                     [ 3.66071600E+00, -5.09491300E-04,  4.12970200E-07,
                       1.71203500E-10, -1.02580300E-13, -1.07869500E+03,
                      -5.02455100E+00])),
        note='20180216')

species(name='N2',
        atoms='N:2',
        thermo=(NASA([100.00, 1476.50],
                     [ 3.54136017E+00, -6.93374234E-04,  2.10102428E-06,
                      -1.28972949E-09,  2.58598645E-13, -1.04117820E+03,
                       2.99222674E+00]),
                NASA([1476.50, 5000.00],
                     [ 2.83317744E+00,  1.60016503E-03, -6.09980897E-07,
                       1.06349431E-10, -6.90914308E-15, -8.72927385E+02,
                       6.54633959E+00])))

species(name='CH2CH3(S)',
        atoms='C:2 H:5',
        thermo=(NASA([100.00, 500.00],
                     [ 1.50954500E+00,  2.37087900E-02, -4.20673500E-05,
                       1.14283900E-07, -1.09027400E-10, -8.06421100E+03,
                      -5.70530000E+00]),
                NASA([500.00, 1500.00],
                     [-2.25828600E-01,  3.00439500E-02, -2.20213000E-05,
                       9.02308800E-09, -1.60535500E-12, -7.85036000E+03,
                       2.11342400E+00])),
        note='20181018',
        size=1.0)

species(name='CH3(S)',
        atoms='C:1 H:3',
        thermo=(NASA([100.00, 500.00],
                     [ 2.18718600E+00,  1.68017700E-03,  3.89200300E-05,
                      -7.38237900E-08,  4.37656300E-11, -5.55946500E+03,
                      -7.85596600E+00]),
                NASA([500.00, 1500.00],
                     [ 1.19470800E+00,  1.42365200E-02, -1.01063000E-05,
                       4.21937600E-09, -7.86477700E-13, -5.53097900E+03,
                      -4.39365800E+00])),
        note='20181018',
        size=1.0)

species(name='H(S)',
        atoms='H:1',
        thermo=(NASA([100.00, 500.00],
                     [ 4.67442300E-01, -1.23614500E-02,  9.70418300E-05,
                      -2.04317100E-07,  1.44486600E-10, -6.12908100E+03,
                      -1.33555800E+00]),
                NASA([500.00, 1500.00],
                     [-9.08601200E-01,  1.02562200E-02, -1.14134200E-05,
                       5.97753700E-09, -1.20645200E-12, -6.12457300E+03,
                       2.97825800E+00])),
        note='20181018',
        size=1.0)

species(name='CH2(S)',
        atoms='C:1 H:2',
        thermo=(NASA([100.00, 500.00],
                     [ 9.54489400E-02,  8.26631400E-04,  8.38357300E-05,
                      -2.10685200E-07,  1.60128800E-10,  1.03067700E+02,
                      -4.47899700E-01]),
                NASA([500.00, 1500.00],
                     [ 6.26401900E-01,  1.39721400E-02, -1.27251600E-05,
                       6.31380600E-09, -1.28490500E-12, -1.64000600E+02,
                      -4.76974400E+00])),
        note='20181018',
        size=1.0)

species(name='CHCH3(S)',
        atoms='C:2 H:4',
        thermo=(NASA([100.00, 500.00],
                     [-4.11358500E-01,  3.74302400E-02, -8.91929400E-05,
                       1.76893200E-07, -1.40378300E-10, -3.70529000E+03,
                       5.36359200E-02]),
                NASA([500.00, 1500.00],
                     [ 9.02525300E-02,  2.70850400E-02, -2.13817400E-05,
                       9.31155900E-09, -1.72391200E-12, -3.73653900E+03,
                      -1.55138600E+00])),
        note='20181018',
        size=1.0)

species(name='CH2CH2(S)',
        atoms='C:2 H:4',
        thermo=(NASA([100.00, 500.00],
                     [ 1.09649300E+00,  6.92553800E-03,  6.15940300E-05,
                      -1.17042500E-07,  6.33717600E-11, -6.38159400E+03,
                      -4.53301900E+00]),
                NASA([500.00, 1500.00],
                     [-8.14983400E-01,  3.06715700E-02, -2.65767400E-05,
                       1.25133400E-08, -2.44150200E-12, -6.33330500E+03,
                       2.12456300E+00])),
        note='20181018',
        size=1.0)

species(name='CH(S)',
        atoms='C:1 H:1',
        thermo=(NASA([100.00, 500.00],
                     [-6.51319800E-02, -8.37102100E-03,  1.30254500E-04,
                      -3.16810000E-07,  2.42751600E-10, -2.77784900E+03,
                       5.93079300E-01]),
                NASA([500.00, 1500.00],
                     [ 3.74472900E-01,  1.17545100E-02, -1.24420300E-05,
                       6.63396700E-09, -1.38803100E-12, -3.09559200E+03,
                      -4.02674100E+00])),
        note='20181018',
        size=1.0)

species(name='CCH3(S)',
        atoms='C:2 H:3',
        thermo=(NASA([100.00, 500.00],
                     [-9.85957500E-01,  4.05364000E-02, -1.04683000E-04,
                       1.88724600E-07, -1.37224800E-10, -8.92326700E+03,
                       2.08010500E+00]),
                NASA([500.00, 1500.00],
                     [ 4.64492700E-01,  2.27005300E-02, -1.84771200E-05,
                       8.20655200E-09, -1.53270400E-12, -9.03840400E+03,
                      -3.39028700E+00])),
        note='20181018',
        size=1.0)

species(name='CHCH2(S)',
        atoms='C:2 H:3',
        thermo=(NASA([100.00, 500.00],
                     [-7.62018100E-01,  1.43529100E-02,  5.88830300E-05,
                      -1.59523800E-07,  1.14765700E-10, -1.09755000E+03,
                       2.23411800E+00]),
                NASA([500.00, 1500.00],
                     [-3.87020300E-01,  2.75172000E-02, -2.57281500E-05,
                       1.26938000E-08, -2.53915300E-12, -1.36286400E+03,
                      -1.44494200E+00])),
        note='20181018',
        size=1.0)

species(name='C(S)',
        atoms='C:1',
        thermo=(NASA([100.00, 500.00],
                     [-1.99327500E-01, -2.82378700E-03,  7.41044800E-05,
                      -1.91536200E-07,  1.51146300E-10,  7.85442300E+03,
                       8.95459200E-01]),
                NASA([500.00, 1500.00],
                     [ 3.02759500E-01,  7.57059000E-03, -8.80953000E-06,
                       4.76280500E-09, -9.84040700E-13,  7.64247600E+03,
                      -2.85983900E+00])),
        note='20181018',
        size=1.0)

species(name='CCH2(S)',
        atoms='C:2 H:2',
        thermo=(NASA([100.00, 500.00],
                     [-1.61150200E+00,  2.79642100E-02, -1.78069400E-05,
                      -1.97773600E-08,  2.58863500E-11,  1.59305600E+02,
                       5.04707100E+00]),
                NASA([500.00, 1500.00],
                     [ 2.52298900E-01,  2.15693200E-02, -2.04357900E-05,
                       1.00986300E-08, -2.01188600E-12, -1.56145900E+02,
                      -3.81858900E+00])),
        note='20181018',
        size=1.0)

species(name='CHCH(S)',
        atoms='C:2 H:2',
        thermo=(NASA([100.00, 500.00],
                     [-1.29230400E+00,  2.18255600E-02,  1.17372600E-05,
                      -7.09532000E-08,  5.61205800E-11,  2.95791300E+03,
                       4.01671800E+00]),
                NASA([500.00, 1500.00],
                     [ 2.85875400E-02,  2.31983800E-02, -2.29984900E-05,
                       1.17076500E-08, -2.37493700E-12,  2.64720900E+03,
                      -3.06675700E+00])),
        note='20181018',
        size=1.0)

species(name='CCH(S)',
        atoms='C:2 H:1',
        thermo=(NASA([100.00, 500.00],
                     [-1.12093900E+00,  2.91421900E-02, -2.65347200E-05,
                      -2.75314200E-08,  4.70564200E-11,  1.72761000E+04,
                       3.94356200E+00]),
                NASA([500.00, 1500.00],
                     [ 2.13594300E+00,  1.36519500E-02, -1.37484800E-05,
                       7.04622700E-09, -1.43205500E-12,  1.68139600E+04,
                      -1.08329500E+01])),
        note='20181018',
        size=1.0)

species(name='CC(S)',
        atoms='C:2',
        thermo=(NASA([100.00, 500.00],
                     [-2.92448700E+00,  4.95057200E-02, -1.36098800E-04,
                       1.88522000E-07, -1.03726600E-10,  2.85293000E+04,
                       9.35334900E+00]),
                NASA([500.00, 1500.00],
                     [ 1.87578100E+00,  1.02899700E-02, -1.11044100E-05,
                       5.69775000E-09, -1.13385000E-12,  2.80384600E+04,
                      -1.04801900E+01])),
        note='20181018',
        size=1.0)

species(name='CH4(S)',
        atoms='C:1 H:4',
        thermo=(NASA([100.00, 500.00],
                     [ 5.32638200E+00,  8.63094800E-03, -5.28137000E-05,
                       1.56681800E-07, -1.34487900E-10, -1.03558700E+04,
                      -1.56531900E+01]),
                NASA([500.00, 1500.00],
                     [ 3.47318400E+00,  8.92472000E-03, -5.01954300E-07,
                      -1.80733900E-09,  5.44289400E-13, -1.00132100E+04,
                      -6.32831000E+00])),
        note='20181018',
        size=1.0)

species(name='PT(S)',
        atoms='Pt:1',
        thermo=(NASA([100.00, 500.00],
                     [ 0.00000000E+00,  0.00000000E+00,  0.00000000E+00,
                       0.00000000E+00,  0.00000000E+00,  0.00000000E+00,
                       0.00000000E+00]),
                NASA([500.00, 1500.00],
                     [ 0.00000000E+00,  0.00000000E+00,  0.00000000E+00,
                       0.00000000E+00,  0.00000000E+00,  0.00000000E+00,
                       0.00000000E+00])),
        size=1.0)

species(name='PT(B)',
        atoms='Pt:1',
        thermo=(NASA([100.00, 500.00],
                     [ 0.00000000E+00,  0.00000000E+00,  0.00000000E+00,
                       0.00000000E+00,  0.00000000E+00,  0.00000000E+00,
                       0.00000000E+00]),
                NASA([500.00, 1500.00],
                     [ 0.00000000E+00,  0.00000000E+00,  0.00000000E+00,
                       0.00000000E+00,  0.00000000E+00,  0.00000000E+00,
                       0.00000000E+00])),
        size=1.0)

#-------------------------------------------------------------------------------
# Reaction data
#-------------------------------------------------------------------------------
disable_motz_wise()
# *******************************************************************************
# Adsorption/Desorption Reactions
# *******************************************************************************

# TERRACE Reaction 1
surface_reaction('CH3CH3 + 2 PT(S) <=> CH2CH3(S) + H(S) + 2 PT(B)', stick(5.000000e-01, 0.0, (12.39, 'kcal/mol')))

# TERRACE Reaction 2
surface_reaction('CH2CH2 + PT(S) <=> CH2CH2(S) + PT(B)', stick(5.000000e-01, 0.0, (0.0, 'kcal/mol')))

# TERRACE Reaction 3
surface_reaction('CHCH + PT(S) <=> CHCH(S) + PT(B)', stick(5.000000e-01, 0.0, (0.0, 'kcal/mol')))

# TERRACE Reaction 4
surface_reaction('CH4 + PT(S) <=> CH4(S) + PT(B)', stick(5.000000e-01, 0.0, (0.0, 'kcal/mol')))

# TERRACE Reaction 5
surface_reaction('H2 + 2 PT(S) <=> 2 H(S) + 2 PT(B)', stick(5.000000e-01, 0.0, (0.0, 'kcal/mol')))
# *******************************************************************************
# Transfer Reactions
# *******************************************************************************
# *******************************************************************************
# Surface Reactions
# *******************************************************************************

# TERRACE Reaction 6
surface_reaction('CC(S) + PT(S) <=> 2 C(S) + PT(B)', [8.370000e+18, 1.0, (15.34, 'kcal/mol')])

# TERRACE Reaction 7
surface_reaction('CCH(S) + PT(S) <=> C(S) + CH(S) + PT(B)', [8.370000e+18, 1.0, (15.97, 'kcal/mol')])

# TERRACE Reaction 8
surface_reaction('CCH(S) + PT(S) <=> CC(S) + H(S) + PT(B)', [8.370000e+18, 1.0, (35.27, 'kcal/mol')])

# TERRACE Reaction 9
surface_reaction('CCH2(S) + PT(S) <=> C(S) + CH2(S) + PT(B)', [8.370000e+18, 1.0, (42.98, 'kcal/mol')])

# TERRACE Reaction 10
surface_reaction('CCH2(S) + PT(S) <=> CCH(S) + H(S) + PT(B)', [8.370000e+18, 1.0, (48.56, 'kcal/mol')])

# TERRACE Reaction 11
surface_reaction('CCH3(S) + PT(S) <=> C(S) + CH3(S) + PT(B)', [8.370000e+18, 1.0, (47.72, 'kcal/mol')])

# TERRACE Reaction 12
surface_reaction('CCH3(S) + PT(S) <=> CCH2(S) + H(S) + PT(B)', [8.370000e+18, 1.0, (31.05, 'kcal/mol')])

# TERRACE Reaction 13
surface_reaction('CH(S) + PT(S) <=> C(S) + H(S) + PT(B)', [8.370000e+18, 1.0, (34.29, 'kcal/mol')])

# TERRACE Reaction 14
surface_reaction('CH2(S) + PT(S) <=> CH(S) + H(S) + PT(B)', [8.370000e+18, 1.0, (6.82, 'kcal/mol')])

# TERRACE Reaction 15
surface_reaction('CH2CH2(S) + PT(S) <=> 2 CH2(S) + PT(B)', [8.370000e+18, 1.0, (41.58, 'kcal/mol')])

# TERRACE Reaction 16
surface_reaction('CH2CH2(S) + PT(S) <=> CHCH2(S) + H(S) + PT(B)', [1.800000e+18, 1.0, (14.68, 'kcal/mol')])

# TERRACE Reaction 17
surface_reaction('CH2CH3(S) + PT(S) <=> CH2(S) + CH3(S) + PT(B)', [8.370000e+18, 1.0, (36.62, 'kcal/mol')])

# TERRACE Reaction 18
surface_reaction('CH2CH3(S) + PT(S) <=> CH2CH2(S) + H(S) + PT(B)', [8.370000e+18, 1.0, (16.05, 'kcal/mol')])

# TERRACE Reaction 19
surface_reaction('CH2CH3(S) + PT(S) <=> CHCH3(S) + H(S) + PT(B)', [8.370000e+18, 1.0, (21.68, 'kcal/mol')])

# TERRACE Reaction 20
surface_reaction('CH4(S) + PT(S) <=> CH3(S) + H(S) + PT(B)', [8.370000e+18, 1.0, (21.06, 'kcal/mol')])

# TERRACE Reaction 21
surface_reaction('CH3(S) + PT(S) <=> CH2(S) + H(S) + PT(B)', [8.370000e+18, 1.0, (23.726, 'kcal/mol')])

# TERRACE Reaction 22
surface_reaction('CHCH(S) + PT(S) <=> CCH(S) + H(S) + PT(B)', [8.370000e+18, 1.0, (42.77, 'kcal/mol')])

# TERRACE Reaction 23
surface_reaction('CHCH(S) + PT(S) <=> 2 CH(S) + PT(B)', [3.410000e+19, 1.0, (28.88, 'kcal/mol')])

# TERRACE Reaction 24
surface_reaction('CHCH2(S) + PT(S) <=> CCH2(S) + H(S) + PT(B)', [8.370000e+18, 1.0, (15.43, 'kcal/mol')])

# TERRACE Reaction 25
surface_reaction('CHCH2(S) + PT(S) <=> CH(S) + CH2(S) + PT(B)', [8.370000e+18, 1.0, (30.77, 'kcal/mol')])

# TERRACE Reaction 26
surface_reaction('CHCH2(S) + PT(S) <=> CHCH(S) + H(S) + PT(B)', [8.370000e+18, 1.0, (21.22, 'kcal/mol')])

# TERRACE Reaction 27
surface_reaction('CHCH3(S) + PT(S) <=> CCH3(S) + H(S) + PT(B)', [8.370000e+18, 1.0, (2.27, 'kcal/mol')])

# TERRACE Reaction 28
surface_reaction('CHCH3(S) + PT(S) <=> CH(S) + CH3(S) + PT(B)', [8.370000e+18, 1.0, (27.00, 'kcal/mol')])

# TERRACE Reaction 29
surface_reaction('CHCH3(S) + PT(S) <=> CHCH2(S) + H(S) + PT(B)', [8.370000e+18, 1.0, (17.896, 'kcal/mol')])
