THERMO ALL
       100       500      1500
H2                2015  H   2               G100       1000      500           1
       3.24E+00       5.21E-03      -3.32E-05       8.24E-08      -6.93E-11    2
 -3.2425939E+00      -3.38E+00       3.56E+00      -1.36E-04      -1.32E-07    3
       5.11E-10      -1.79E-13 -2.5316552E+01      -4.52E+00                   4
N2                2015  N   2               G100       1000      500           1
       3.51E+00      -1.02E-04       6.67E-07      -2.04E-09       3.11E-12    2
 -3.5099492E+00       3.12E+00       3.67E+00      -1.54E-03       3.74E-06    3
       -2.5E-09       5.64E-13 -8.7016159E+00       2.47E+00                   4
NH3               2015  H   3N   1          G100       1000      500           1
       4.36E+00      -6.15E-03       2.95E-05      -3.75E-08       1.74E-11    2
 -4.9944927E+03      -8.04E-01       2.88E+00        4.6E-03      -1.61E-07    3
       -7.1E-10       1.99E-13 -4.8297052E+03       5.47E+00                   4
HE                2015  HE  1               G100       1000      500           1
        2.5E+00        0.0E+00        0.0E+00        0.0E+00        0.0E+00    2
       -2.5E+00       9.28E-01        2.5E+00        0.0E+00        0.0E+00    3
        0.0E+00        0.0E+00       -2.5E+00       9.28E-01                   4
N2(S1)          20181115N   2               S100.0     1500.0    425.0         1
 3.97200397E+00 2.12003530E-03-5.56287306E-07-2.11121572E-10 9.85070136E-14    2
-8.10864585E+03-1.59979650E+01-9.10445320E-01 4.89592434E-02-1.75578386E-04    3
 2.99804866E-07-1.97471775E-10-7.68435167E+03 3.38555361E+00                   4
N(S1)           20181115N   1               S100.0     1500.0    400.0         1
 5.53872504E-01 7.62400134E-03-9.69962741E-06 5.64279743E-09-1.23800527E-12    2
-1.25551285E+04-2.84473645E+00-2.92827971E-01-3.66949891E-03 1.15577744E-04    3
-3.66230801E-07 3.54747724E-10-1.23346199E+04 2.37844460E+00                   4
H(S1)           20181115H   1               S100.0     1500.0    450.0         1
-1.00540892E+00 1.08830961E-02-1.25048374E-05 6.73114028E-09-1.39000534E-12    2
-6.03443632E+03 4.52369600E+00 5.63345923E-01-1.45012062E-02 1.13785384E-04    3
-2.51403975E-07 1.88757748E-10-6.06174478E+03-5.32622085E-01                   4
NH3(S1)         20181115N   1H   3          S100.0     1500.0    375.0         1
 1.14600062E+00 1.48335781E-02-1.25932409E-05 6.43547568E-09-1.38512672E-12    2
-1.37848295E+04-4.86335790E+00-1.37618350E+00 4.80327092E-02-1.83855105E-04    3
 4.04560056E-07-3.47813708E-10-1.36173221E+04 4.39202293E+00                   4
NH2(S1)         20181115N   1H   2          S100.0     1500.0    500.0         1
 6.14094881E-01 1.40097645E-02-1.34774400E-05 7.01751131E-09-1.46663892E-12    2
-1.19073321E+04-3.84453450E+00-8.75032300E-01 1.39031179E-02 2.22628829E-05    3
-9.06738201E-08 7.54915627E-11-1.15931795E+04 3.86359049E+00                   4
NH(S1)          20181115N   1H   1          S100.0     1500.0    425.0         1
-2.27869613E-01 1.44413851E-02-1.69295825E-05 9.69317318E-09-2.12694471E-12    2
-1.50859025E+04 4.92131782E-02-1.18367279E-01-7.67989301E-03 1.39776326E-04    3
-3.75872065E-07 3.21904136E-10-1.48982741E+04 1.85867818E+00                   4
TS1_NH3         20181115N   1H   3          S100.0     1500.0    600.0         1
 1.63694832E+00 1.39973287E-02-1.14067301E-05 5.13510604E-09-9.64469381E-13    2
-2.89237280E+03-8.47758856E+00-1.37553212E+00 3.09074731E-02-4.78618666E-05    3
 4.09646232E-08-1.44862622E-11-2.45452614E+03 5.06725564E+00                   4
TS2_NH2         20181115N   1H   2          S100.0     1500.0    450.0         1
 5.55488740E-01 1.64782965E-02-1.81539711E-05 9.88567172E-09-2.09043884E-12    2
-6.45824738E+03-3.49663925E+00-4.63325159E-01 8.50625160E-03 6.85121349E-05    3
-2.19909036E-07 1.92649104E-10-6.18803820E+03 2.52365372E+00                   4
TS3_NH          20181115N   1H   1          S100.0     1500.0    375.0         1
 1.42510452E+00 7.22925346E-03-7.14266838E-06 3.63435925E-09-7.47020250E-13    2
-2.35470466E+03-6.96503997E+00-1.27834944E+00 1.37495089E-02 6.30486517E-05    3
-3.16905708E-07 3.67516025E-10-1.99468634E+03 5.49156564E+00                   4
TS4_N2          20181115N   2               S100.0     1500.0    425.0         1
 2.10218010E+00 8.86008270E-03-1.10791353E-05 6.34968995E-09-1.37545537E-12    2
 2.07734663E+04-1.02810091E+01-1.83551382E+00 3.17313399E-02-4.02992385E-05    3
-3.81095051E-08 8.75019867E-11 2.12452791E+04 6.88165253E+00                   4
RU(S1)              2015RU  1               S100       1000      500           1
        0.0E+00        0.0E+00        0.0E+00        0.0E+00        0.0E+00    2
        0.0E+00        0.0E+00        0.0E+00        0.0E+00        0.0E+00    3
        0.0E+00        0.0E+00        0.0E+00        0.0E+00                   4
N2(S2)              2015N   2               S100       1000      500           1
 -3.0389116E-01  3.8896493E-02 -1.1844826E-04  1.6547503E-07 -8.5383479E-11    2
 -4.7563787E+03  2.5490376E-01  3.8398741E+00  2.9098818E-03 -2.2772005E-06    3
  1.4089311E-09 -4.5833977E-13 -5.1376449E+03 -1.6514162E+01                   4
N(S2)               2015N   1               S100       1000      500           1
  1.2514381E-01 -8.5266996E-03  1.2722803E-04 -3.4767398E-07  2.9447935E-10    2
  3.2857192E+03 -2.2025331E-01 -7.2361056E-02  1.1348615E-02 -1.7675847E-05    3
   1.295004E-08 -3.6651938E-12  3.1663722E+03 -1.1837901E+00                   4
H(S2)               2015H   1               S100       1000      500           1
  1.7236866E-01 -7.1264531E-03  6.8017397E-05 -1.3672807E-07  8.8559845E-11    2
 -4.2823099E+03 -3.8414481E-01 -1.8446364E+00  1.5493801E-02 -2.1740082E-05    3
  1.4736242E-08 -3.9304652E-12 -4.1500095E+03  7.1950875E+00                   4
NH3(S2)             2015H   3N   1          S100       1000      500           1
 -9.5737439E-01  3.7602784E-02 -1.0471454E-04  1.6942942E-07 -1.0724577E-10    2
 -1.6401966E+04  2.1056445E+00  6.3192371E-01   1.790207E-02 -1.9154844E-05    3
  1.2407789E-08 -3.3474652E-12 -1.6494915E+04 -3.6998252E+00                   4
NH2(S2)             2015H   2N   1          S100       1000      500           1
  -1.404812E-01  7.1196379E-04  1.0002678E-04 -2.7513268E-07  2.2758041E-10    2
 -1.1983014E+04  3.8453604E-01 -1.4829962E+00  2.5009061E-02 -3.4668961E-05    3
  2.4817851E-08  -6.977616E-12  -1.195731E+04  4.5828996E+00                   4
NH(S2)              2015H   1N   1          S100       1000      500           1
  2.0851944E-01  -1.165314E-02  1.5238542E-04 -3.7892674E-07  3.0017096E-10    2
 -5.6135514E+03 -4.1192144E-01 -1.7035332E+00  2.2841855E-02 -3.4278156E-05    3
  2.5124571E-08 -7.1316136E-12 -5.5844111E+03  5.5236303E+00                   4
RU(S2)              2015RU  1               S100       1000      500           1
        0.0E+00        0.0E+00        0.0E+00        0.0E+00        0.0E+00    2
        0.0E+00        0.0E+00        0.0E+00        0.0E+00        0.0E+00    3
        0.0E+00        0.0E+00        0.0E+00        0.0E+00                   4
RU(B)               2015RU  1               S100       1000      500           1
        0.0E+00        0.0E+00        0.0E+00        0.0E+00        0.0E+00    2
        0.0E+00        0.0E+00        0.0E+00        0.0E+00        0.0E+00    3
        0.0E+00        0.0E+00        0.0E+00        0.0E+00                   4
END