THERMO ALL
300      1500.      500
! ------------------------------------------------------------------------------
!  Surface
! ------------------------------------------------------------------------------
PT(S)                   PT  1               S      100.     1500.     500      1
          0E+00          0E+00          0E+00          0E+00          0E+00    2
          0E+00          0E+00          0E+00          0E+00          0E+00    3
          0E+00          0E+00          0E+00          0E+00                   4
PT(B)                   PT  1               S      100.     1500.     500      1
          0E+00          0E+00          0E+00          0E+00          0E+00    2
          0E+00          0E+00          0E+00          0E+00          0E+00    3
          0E+00          0E+00          0E+00          0E+00                   4
! ------------------------------------------------------------------------------
!  General Gas Species
! ------------------------------------------------------------------------------
N2                      N   2               G   100.000  5000.000 1476.50      1
 2.83317744E+00 1.60016503E-03-6.09980897E-07 1.06349431E-10-6.90914308E-15    2
-8.72927385E+02 6.54633959E+00 3.54136017E+00-6.93374234E-04 2.10102428E-06    3
-1.28972949E-09 2.58598645E-13-1.04117820E+03 2.99222674E+00                   4
! ------------------------------------------------------------------------------
!  Surface Species va GA
! ------------------------------------------------------------------------------
H(S)            20181018C   0H   1O   0N   0S     100.0    1500.0   500.0      1
  -9.086012E-01   1.025622E-02  -1.141342E-05   5.977537E-09  -1.206452E-12    2
  -6.124573E+03   2.978258E+00   4.674423E-01  -1.236145E-02   9.704183E-05    3
  -2.043171E-07   1.444866E-10  -6.129081E+03  -1.335558E+00                   4
C(S)            20181018C   1H   0O   0N   0S     100.0    1500.0   500.0      1
   3.027595E-01   7.570590E-03  -8.809530E-06   4.762805E-09  -9.840407E-13    2
   7.642476E+03  -2.859839E+00  -1.993275E-01  -2.823787E-03   7.410448E-05    3
  -1.915362E-07   1.511463E-10   7.854423E+03   8.954592E-01                   4
CH(S)           20181018C   1H   1O   0N   0S     100.0    1500.0   500.0      1
   3.744729E-01   1.175451E-02  -1.244203E-05   6.633967E-09  -1.388031E-12    2
  -3.095592E+03  -4.026741E+00  -6.513198E-02  -8.371021E-03   1.302545E-04    3
  -3.168100E-07   2.427516E-10  -2.777849E+03   5.930793E-01                   4
CH2(S)          20181018C   1H   2O   0N   0S     100.0    1500.0   500.0      1
   6.264019E-01   1.397214E-02  -1.272516E-05   6.313806E-09  -1.284905E-12    2
  -1.640006E+02  -4.769744E+00   9.544894E-02   8.266314E-04   8.383573E-05    3
  -2.106852E-07   1.601288E-10   1.030677E+02  -4.478997E-01                   4
CCH3(S)         20181018C   2H   3O   0N   0S     100.0    1500.0   500.0      1
   4.644927E-01   2.270053E-02  -1.847712E-05   8.206552E-09  -1.532704E-12    2
  -9.038404E+03  -3.390287E+00  -9.859575E-01   4.053640E-02  -1.046830E-04    3
   1.887246E-07  -1.372248E-10  -8.923267E+03   2.080105E+00                   4
CCH2(S)         20181018C   2H   2O   0N   0S     100.0    1500.0   500.0      1
   2.522989E-01   2.156932E-02  -2.043579E-05   1.009863E-08  -2.011886E-12    2
  -1.561459E+02  -3.818589E+00  -1.611502E+00   2.796421E-02  -1.780694E-05    3
  -1.977736E-08   2.588635E-11   1.593056E+02   5.047071E+00                   4
CHCH3(S)        20181018C   2H   4O   0N   0S     100.0    1500.0   500.0      1
   9.025253E-02   2.708504E-02  -2.138174E-05   9.311559E-09  -1.723912E-12    2
  -3.736539E+03  -1.551386E+00  -4.113585E-01   3.743024E-02  -8.919294E-05    3
   1.768932E-07  -1.403783E-10  -3.705290E+03   5.363592E-02                   4
CH3(S)          20181018C   1H   3O   0N   0S     100.0    1500.0   500.0      1
   1.194708E+00   1.423652E-02  -1.010630E-05   4.219376E-09  -7.864777E-13    2
  -5.530979E+03  -4.393658E+00   2.187186E+00   1.680177E-03   3.892003E-05    3
  -7.382379E-08   4.376563E-11  -5.559465E+03  -7.855966E+00                   4
CH2CH2(S)       20181018C   2H   4O   0N   0S     100.0    1500.0   500.0      1
  -8.149834E-01   3.067157E-02  -2.657674E-05   1.251334E-08  -2.441502E-12    2
  -6.333305E+03   2.124563E+00   1.096493E+00   6.925538E-03   6.159403E-05    3
  -1.170425E-07   6.337176E-11  -6.381594E+03  -4.533019E+00                   4
CH2CH3(S)       20181018C   2H   5O   0N   0S     100.0    1500.0   500.0      1
  -2.258286E-01   3.004395E-02  -2.202130E-05   9.023088E-09  -1.605355E-12    2
  -7.850360E+03   2.113424E+00   1.509545E+00   2.370879E-02  -4.206735E-05    3
   1.142839E-07  -1.090274E-10  -8.064211E+03  -5.705300E+00                   4
CHCH(S)         20181018C   2H   2O   0N   0S     100.0    1500.0   500.0      1
   2.858754E-02   2.319838E-02  -2.299849E-05   1.170765E-08  -2.374937E-12    2
   2.647209E+03  -3.066757E+00  -1.292304E+00   2.182556E-02   1.173726E-05    3
  -7.095320E-08   5.612058E-11   2.957913E+03   4.016718E+00                   4
CHCH2(S)        20181018C   2H   3O   0N   0S     100.0    1500.0   500.0      1
  -3.870203E-01   2.751720E-02  -2.572815E-05   1.269380E-08  -2.539153E-12    2
  -1.362864E+03  -1.444942E+00  -7.620181E-01   1.435291E-02   5.888303E-05    3
  -1.595238E-07   1.147657E-10  -1.097550E+03   2.234118E+00                   4
CC(S)           20181018C   2H   0O   0N   0S     100.0    1500.0   500.0      1
   1.875781E+00   1.028997E-02  -1.110441E-05   5.697750E-09  -1.133850E-12    2
   2.803846E+04  -1.048019E+01  -2.924487E+00   4.950572E-02  -1.360988E-04    3
   1.885220E-07  -1.037266E-10   2.852930E+04   9.353349E+00                   4
CCH(S)          20181018C   2H   1O   0N   0S     100.0    1500.0   500.0      1
   2.135943E+00   1.365195E-02  -1.374848E-05   7.046227E-09  -1.432055E-12    2
   1.681396E+04  -1.083295E+01  -1.120939E+00   2.914219E-02  -2.653472E-05    3
  -2.753142E-08   4.705642E-11   1.727610E+04   3.943562E+00                   4
CH4(S)          20181018C   1H   4O   0N   0S     100.0    1500.0   500.0      1
   3.473184E+00   8.924720E-03  -5.019543E-07  -1.807339E-09   5.442894E-13    2
  -1.001321E+04  -6.328310E+00   5.326382E+00   8.630948E-03  -5.281370E-05    3
   1.566818E-07  -1.344879E-10  -1.035587E+04  -1.565319E+01                   4
! ------------------------------------------------------------------------------
!  Gas Species
! ------------------------------------------------------------------------------
H2              20180216C   0O   0H   2N   0G      100.     1500.    600.      1
   3.660716E+00  -5.094913E-04   4.129702E-07   1.712035E-10  -1.025803E-13    2
  -1.078695E+03  -5.024551E+00   2.359620E+00   8.669434E-03  -2.452869E-05    3
   3.092782E-08  -1.454207E-11  -9.263951E+02   5.339751E-01                   4
CH4             20180216C   1O   0H   4N   0G      300.     1500.    500.      1
   1.923256E+00   6.477388E-03   3.691325E-06  -4.728679E-09   1.272770E-12    2
  -9.878082E+03   9.422848E+00   8.167462E+00  -4.340863E-02   1.565496E-04    3
  -2.170620E-07   1.137175E-10  -1.051860E+04  -1.645645E+01                   4
CHCH            20180216C   2O   0H   2N   0G    298.15     1500.    600.      1
   2.867774E+00   1.163393E-02  -1.114154E-05   6.261766E-09  -1.415648E-12    2
   2.597286E+04   4.810602E+00  -1.822474E+00   4.657433E-02  -1.095117E-04    3
   1.302547E-07  -6.038627E-11   2.648013E+04   2.453934E+01                   4
CH2CH2          20180216C   2O   0H   4N   0G    298.15     1500.    700.      1
  -1.714629E+00   2.746817E-02  -2.326748E-05   1.093010E-08  -2.127992E-12    2
   5.834109E+03   2.901878E+01   2.007959E+00   6.345070E-03   2.372066E-05    3
  -3.741865E-08   1.713816E-11   5.285668E+03   1.227730E+01                   4
CH3CH3          20180216C   2O   0H   6N   0G      100.     1700.    600.      1
  -1.179667E-01   2.441103E-02  -1.221218E-05   2.921645E-09  -2.633766E-13    2
  -1.102727E+04   2.116908E+01   5.687837E+00  -2.105701E-02   1.209877E-04    3
  -1.704135E-07   8.432696E-11  -1.161639E+04  -2.925983E+00                   4
end